9
-2.6702964818480871e+02 frame 26   xyz file generated by TeraChem
O	1.369627119	0.951356327	9.908438528
O	-1.199303734	0.961400887	9.911224786
C	0.068001267	-1.022175749	10.03218435
C	1.253749238	-0.356789413	9.990042489
C	-1.156324326	-0.272208839	9.987482719
H	0.435660215	1.312868501	9.885783618
H	0.048825711	-2.101912493	10.10068293
H	2.212979712	-0.868893011	10.02225262
H	-2.104215212	-0.835646171	10.02390796