21
-6.8108671139319347e+02 frame 5   xyz file generated by TeraChem
     C    -0.7294428520    3.4299954376   12.0173558599
     N    -0.7916256561    3.4495995415   10.6878687222
     C     0.3261343760    4.2449065187   12.4713388132
     N    -1.4815096500    3.0724929909    8.3270201746
     C     0.9243628578    4.7804992781   11.3461685993
     C     0.2214134174    4.2811054482   10.2256865548
     C     0.3834701027    4.4995253644    8.8671631240
     C    -0.4477625755    3.9111902250    7.9271410100
     C    -0.4696617195    3.9921960983    6.5161411693
     C    -1.5168577327    3.2014626428    6.0808807639
     C    -2.1131644485    2.6527089828    7.2326624299
     B    -1.8247623000    2.6795801014    9.8005593331
     F    -1.6703638098    1.3194200689    9.9663986423
     F    -3.1010080823    3.0886345499   10.1223200319
     H    -1.4330604650    2.8424204264   12.5909162004
     H     0.5972502859    4.4093001516   13.5039662991
     H     1.7682531701    5.4555756660   11.3041443572
     H     1.1813792704    5.1528773287    8.5293700522
     H     0.2161349354    4.5718613163    5.9133698166
     H    -1.8306470121    3.0249042336    5.0624599274
     H    -2.9581491123    1.9824206288    7.3098751187
